55
Ag55 optimized coordinates
Ag      10.92027781      10.92027781      10.92027781 
Ag      13.27325266      10.92027781       9.46617684 
Ag      13.27325266      10.92027781      12.37437878 
Ag       8.56730296      10.92027781       9.46617684 
Ag       8.56730296      10.92027781      12.37437878 
Ag       9.46617684      13.27325266      10.92027781 
Ag      12.37437878      13.27325266      10.92027781 
Ag       9.46617684       8.56730296      10.92027781 
Ag      12.37437878       8.56730296      10.92027781 
Ag      10.92027781       9.46617684      13.27325266 
Ag      10.92027781      12.37437878      13.27325266 
Ag      10.92027781       9.46617684       8.56730296 
Ag      10.92027781      12.37437878       8.56730296 
Ag      15.59990281      10.92027781       8.02830896 
Ag      15.73930646      10.92027781      10.92027781 
Ag      15.59990281      10.92027781      13.81224666 
Ag       6.24065281      10.92027781       8.02830896 
Ag       6.10124916      10.92027781      10.92027781 
Ag       6.24065281      10.92027781      13.81224666 
Ag       8.02830896      15.59990281      10.92027781 
Ag      10.92027781      15.73930646      10.92027781 
Ag      13.81224666      15.59990281      10.92027781 
Ag       8.02830896       6.24065281      10.92027781 
Ag      10.92027781       6.10124916      10.92027781 
Ag      13.81224666       6.24065281      10.92027781 
Ag      10.92027781       8.02830896      15.59990281 
Ag      10.92027781      10.92027781      15.73930646 
Ag      10.92027781      13.81224666      15.59990281 
Ag      10.92027781       8.02830896       6.24065281 
Ag      10.92027781      10.92027781       6.10124916 
Ag      10.92027781      13.81224666       6.24065281 
Ag      13.32947717       9.43129867      14.81870742 
Ag      13.32947717      12.40925695      14.81870742 
Ag      13.32947717       9.43129867       7.02184820 
Ag      13.32947717      12.40925695       7.02184820 
Ag       8.51107845       9.43129867      14.81870742 
Ag       8.51107845      12.40925695      14.81870742 
Ag       8.51107845       9.43129867       7.02184820 
Ag       8.51107845      12.40925695       7.02184820 
Ag      14.81870742      13.32947717       9.43129867 
Ag      14.81870742      13.32947717      12.40925695 
Ag       7.02184820      13.32947717       9.43129867 
Ag       7.02184820      13.32947717      12.40925695 
Ag      14.81870742       8.51107845       9.43129867 
Ag      14.81870742       8.51107845      12.40925695 
Ag       7.02184820       8.51107845       9.43129867 
Ag       7.02184820       8.51107845      12.40925695 
Ag       9.43129867      14.81870742      13.32947717 
Ag      12.40925695      14.81870742      13.32947717 
Ag       9.43129867       7.02184820      13.32947717 
Ag      12.40925695       7.02184820      13.32947717 
Ag       9.43129867      14.81870742       8.51107845 
Ag      12.40925695      14.81870742       8.51107845 
Ag       9.43129867       7.02184820       8.51107845 
Ag      12.40925695       7.02184820       8.51107845 
