46
MoSe2 nanoflake with N=4
Se           10.0760994882        6.4030979199        8.2614078602
Se            8.4838755548        9.1312570943        8.2044683862
Se            6.8280539097       11.9878587834        8.2036025575
Se            5.2478733291       14.7290527256        8.2697150549
Se           13.8699828720        6.4015533793        8.2586141743
Se           11.9759514941        9.2684061541        8.9247442127
Se           10.3083482782       12.1099843652        8.7378251922
Se            8.6711132260       14.9640430226        8.9175176548
Se            7.0874631913       18.0268550398        8.2417415178
Se           15.4669851097        9.1544524555        8.1901910263
Se           13.6302534789       12.1204899864        8.7257193894
Se           11.9644120509       15.0063541194        8.7280264761
Se           10.2900645851       18.0526912667        8.1933190906
Se           17.1138732324       12.0260867290        8.1772568073
Se           15.2582311055       14.9793652678        8.9140922318
Se           13.6176902934       18.0711394018        8.1924634514
Se           18.6937239805       14.7822512815        8.2242766364
Se           16.7779075291       18.0627669338        8.2524566436
Se           10.0677446074        6.3859329168        5.9676956469
Se            8.4761339558        9.1113782623        5.9442970843
Se            6.8128120342       11.9751867535        5.9413790916
Se            5.2195998126       14.7119903314        5.9744382500
Se           13.8755116217        6.3831761027        5.9603099745
Se           11.9709637342        9.2394351053        5.2047090553
Se           10.2927656676       12.0940114601        5.3695486950
Se            8.6492828342       14.9684401083        5.1990975801
Se            7.0899031349       18.0287647205        5.9430794036
Se           15.4731412793        9.1500920953        5.9263150838
Se           13.6332096155       12.1112014487        5.3671256665
Se           11.9625842587       15.0193854801        5.3640513114
Se           10.3032695643       18.0817647988        5.9325116932
Se           17.1105500671       12.0014862711        5.9143977925
Se           15.2758094969       14.9967325550        5.1918994003
Se           13.6218456969       18.0940121645        5.9324734597
Se           18.6850770938       14.7876149169        5.9279088843
Se           16.7777526719       18.0874698701        5.9579975259
Mo           11.9755942767        7.6260577436        7.0821814332
Mo           10.5265216461       10.2167873637        7.0612825307
Mo            8.7772847509       13.2324026465        7.0567484534
Mo            7.2419150743       15.7686732664        7.0714136997
Mo           13.4124444485       10.2228999726        7.0559025657
Mo           11.9595960353       13.0793871294        7.0447105907
Mo           10.2089456701       15.7477354919        7.0512088802
Mo           15.1540407251       13.2587001519        7.0458657405
Mo           13.7092366705       15.7600888471        7.0502221796
Mo           16.6708682056       15.8091505014        7.0659251747
